CRYSTAL
PRIMVEC
 18.80285156974804 0.00000000000000 0.00000000000000
 0.00000000000000 15.04228125579843 0.00000000000000
 0.00000000000000 0.00000000000000 40.00000184983308
PRIMCOORD
 428 1
  1     6.44311689540000     8.46506289250000    11.31935267270000
  1     6.10980748130000     8.02035657890000    12.88133395140000
  1     5.86796045960000     9.75867976050000    12.42831263420000
  6     5.76402698880000     8.68413201280000    12.12882206680000
  1     2.99423183750000     6.91574744110000    11.20886271890000
  1    15.90047422570000    12.16460162720000    11.40997874970000
  1     4.61825193280000    10.32191618050000    10.68188067310000
  7     4.46904041390000     8.40678530100000    11.69813757640000
  6     3.80059596200000     9.44101604600000    10.86417564730000
  1     4.00382796710000     6.48501927410000    12.65449217770000
  6     4.09122668740000     6.98948141420000    11.63100704310000
  1    14.25745319790000     9.86698530440000    10.84479543950000
  6    14.92914477030000    12.47424760700000    11.36813270040000
  1    14.85692377470000    13.53671945830000    11.74359794950000
  1    14.60202233960000    12.55992351470000    10.33590288420000
  1     2.91544254120000    10.22577335190000    11.22261058430000
  1     7.13975564920000     3.08554626550000    12.49536383870000
  6    12.63963408380000    12.55290716270000    12.18461294490000
  6    13.44379230060000    10.54733985980000    11.03140794280000
  1    13.14139033520000    13.50490922700000    12.08062121640000
  1     9.17769601550000     3.73509932080000     9.39852675420000
  7    13.82819709690000    11.62810884440000    12.07752111790000
  1    13.25542247850000    11.09977472890000    10.11195124150000
  1     6.92937099370000     1.37353808470000    12.61716394770000
  1     8.15246606930000     4.57723401330000    11.81057541610000
  6     4.94053046090000     6.03482165910000    10.90572216250000
  1     9.63324084830000     3.39302646620000    11.70592691090000
  1     4.70386985320000     6.30711866610000     9.84506998810000
  8     4.69851485610000     4.70080219910000    11.35496782420000
  1    12.10549960920000    12.51268454810000    11.22288880880000
  6     6.36311058810000     2.32628565620000    12.65234669380000
  6     9.20026478200000     4.38084588110000    11.66373317930000
  1    11.86315334160000    10.36908650470000    12.63144139890000
  1     6.06077565160000    -1.31422820230000     9.80965985990000
  6    12.15636317090000     9.94433875230000    11.60219776340000
  1     3.16495181030000     3.80759481230000    12.00991805540000
  1     5.95523957730000     6.21516376170000    11.28038135610000
  8    12.08523528380000     8.48486648440000    11.70519642060000
  1     8.80916353540000    13.32900865020000    10.39227022710000
  1     8.30589301090000     9.79207570940000    12.21426186220000
  1    17.56550800640000     2.59743029340000    11.86894382560000
  1     2.06653599880000     5.54585030110000    10.55246418370000
  6     2.98711179830000     2.86950259240000    12.70921986790000
  1     6.75873485570000    11.52706901000000    11.51365501320000
  1     1.87779391720000     2.72633904590000    12.90992960470000
  1     0.50304948630000     5.91426375800000     9.97934186850000
  6     5.37258917790000     3.73122055450000    10.54835289630000
  1     9.96594428390000    10.37483068640000    12.07492610250000
  1    15.72300385030000     9.49813913460000    12.21462557910000
  6     5.58716389460000     2.40400518200000    11.37648944580000
  1    11.38182465230000    10.23413936790000    10.96091760320000
  6     9.08640651330000    10.10521858680000    11.54019971270000
  6     9.92753830270000     5.41609176260000    11.29288248840000
  1    17.17418903420000     1.10839972020000    10.38972675470000
  1     0.52991945910000     3.44959006520000    12.07223408170000
  6     9.18665117930000    12.43123586070000    10.97337261020000
  8     9.76744996650000     7.86037886990000    11.30729582040000
  1     0.25117538240000     7.44091863520000     8.39114018350000
  1     7.10231943590000     4.72547528000000    10.79754458200000
  1     8.83490987210000    12.70005194420000    12.00825597010000
  6     1.39156183060000     6.29068665550000    10.35709493870000
  6    11.58671363580000     4.86396432970000     9.55679254220000
  6    15.82957760240000     8.50654795760000    11.73748991090000
  1    11.58504511880000     6.51393585790000    10.88278520850000
  6    12.87579454600000     7.41618004470000    11.98799856880000
  6    17.16593616700000     3.31738974490000    11.09125643740000
  1    14.91946700210000     8.32115388200000    11.13270031170000
  6     6.64495942120000     4.20035075350000     9.93797642800000
  6    11.36507623160000     5.48188556900000    10.99391348350000
  1    17.79754949110000     4.15023917320000    10.59436257040000
  1     1.90459726610000     6.87922057870000     9.64804927670000
  6     7.07695446970000    11.12846517510000    10.53017240710000
  1    10.27669728480000    12.52345568620000    10.94734843760000
  8     4.47549013850000     3.40736772040000     9.46404830950000
  7     8.63616614390000    11.14464229130000    10.63867939040000
  6     1.37637594850000     6.56065121090000    12.71365887350000
  1     4.89300858720000     0.46291474710000    11.78307771490000
  8    16.99040908370000     5.49610126340000     9.31921371990000
  6     9.32880361500000     6.64818665480000    10.68863185590000
  6     4.50096732210000     1.31389954120000    11.17929098310000
  6     9.36647327900000     8.94147037410000    10.67352845940000
  6     3.08846099890000     1.73614817920000    11.60381393980000
  6    16.25904822810000     6.78744056480000     9.52450272370000
  8     0.23985611080000     4.39149730050000    12.56279370420000
  1     2.00658864190000    -0.19416749810000    10.92666411570000
  1     6.84738129800000    10.13617088740000    10.30249382210000
  1     6.66957883300000    12.11247813720000     9.72327057810000
  8    13.57576968710000     6.88846109790000    11.18911173800000
  7     1.06511084950000     7.13012520810000    11.53175568810000
  1     0.08822211510000     9.00785426550000    11.52376534630000
  1     8.65894483730000     8.87834075800000     9.78639558810000
  6    17.46086488410000     7.64100962730000     9.88825689000000
  6    11.55363603820000     3.40005753790000     9.84451388870000
  6    15.87500174780000     3.19976953420000    10.78811868730000
  7    17.02086581090000     8.68998590550000    10.87565510310000
  1     7.25815256100000     3.36381985360000     9.71041825390000
  1    18.12857413510000    10.13459801510000    10.16453400790000
  1    12.01205547840000     4.93179426320000    11.70544412860000
  6     2.16151546590000     0.40399358020000    11.86963637560000
  1    10.30473483460000     9.29648144660000    10.07204780090000
  6     2.20484732930000     2.32030133530000    10.40742561410000
  6     1.36694470740000     5.09093644110000    12.64348761150000
  1     2.64056519920000    -0.38342878160000    12.50085658370000
  1    15.49183182260000     6.57245880650000    10.19044142630000
  6    15.11583104450000     4.13290413620000     9.89449761000000
  1     4.39310331940000     1.09657338820000    10.06403913680000
  6     1.04489893770000     8.57824728880000    11.41156603920000
  8     7.92713528070000     6.86352776430000    10.79469239170000
  6    17.16491694270000    10.05728762220000    10.57631040360000
  1    17.14267937770000    10.80680128410000    11.41052983240000
  1    18.06202828830000     6.97237058280000    10.41778630180000
  1    10.97898223390000     2.94601977740000    10.68384362500000
  1     1.64891994300000     8.94594244480000    12.28182106710000
  1    15.29206530260000     2.42819038580000    11.20570768610000
  1     0.72852067340000     3.93921777880000     9.40704504500000
  1     2.20213808810000     4.74880119240000    11.94128259510000
  1     1.35313211510000     0.75034024890000    12.37916960850000
  1     1.68582986590000     8.91629886870000    10.56926639930000
  8     1.08492248590000     2.58754563660000    10.86140845450000
  8    14.29800603980000     4.94655732960000    10.37276184540000
  1    16.50888711230000    10.46795124160000     9.76881330120000
 14    13.08228418990000    15.02367558510000     9.67359109130000
  6    15.91346455550000    14.36231490580000     9.64274891810000
  6    18.06541518200000    12.54015077330000     9.56408422060000
  6     6.76902790510000     5.34633124450000     8.90079979630000
  6    17.18382435970000    13.64417428310000     9.39541041960000
  6     9.62107132040000     6.41573998460000     9.25970204190000
  6     0.59113390720000    12.90495596780000     9.22401422790000
 14     3.98644111770000     8.94237496280000     9.01359922650000
 14     7.12707067080000     7.11831791650000     9.32102127710000
  6     9.83397162360000     2.84200980090000     7.62733099010000
  6    11.19396176860000    11.00607805150000     8.57065682490000
  6    14.65439908740000    14.18845716400000     8.98783682380000
  6     0.53527495200000    14.30189206890000     9.07259019240000
  6     8.36477986870000     0.95212217860000     7.93139034760000
  6     8.51035952890000     2.15649837010000     7.06566712900000
  6    10.68241014040000     1.80258266770000     8.40599080610000
  6    16.86615599690000     0.60349320940000     9.41532141200000
  6    11.26861217470000     7.87044816510000     7.74226080850000
  6    11.83996451030000     2.40208313730000     8.98698479000000
  6    11.95886045240000    13.45170514090000     9.20783984970000
 14     2.36027002070000    11.85837091500000     8.74914486990000
  6     5.78142311030000     5.59086793190000     7.84804473350000
  6    10.48362150190000     5.24568547560000     8.57143965670000
 14     6.76140163140000     1.11808111800000     8.95735734460000
  6     9.36493220690000     4.17651105850000     8.39625113500000
  6    17.91215408620000    14.71188830450000     8.71003881430000
  6     8.77683402960000     7.03812616220000     8.48542696060000
 14     9.26286756130000    10.70781688060000     8.61627436540000
  6    12.58345343010000     7.77618328910000     8.31520138930000
  6     9.29019379340000    -0.01565337410000     8.28540757560000
  6    18.12541207540000     7.88856155320000     8.44172284540000
  6     0.66121633430000     3.43469843020000     8.44373554790000
 14    13.16573044410000     4.77088661160000     8.59102651470000
  6    17.24531359580000     7.14827893210000     7.44036672270000
  6    16.90982412430000     9.78499877740000     7.60818138650000
  6    10.60291050870000     0.37129030420000     8.26133028050000
  6    14.83150097290000     3.77595323820000     8.52347499700000
  6    18.21786297440000     9.20074458150000     7.92250300350000
  6     6.28399039030000    14.31135812640000     9.00720772750000
 14     4.48781637020000     2.96032607130000     7.84843669250000
  6     1.49742680140000    -0.00970171930000     8.48221056720000
  6     5.72199439630000     8.31178709260000     8.81370798410000
  6    13.13705419340000     9.07734013830000     8.44092493290000
 14    17.10677847230000    11.64638144950000     8.36137451030000
  6    15.79846506650000     8.91175660780000     8.07135670750000
  6    15.01466688550000     2.30806915940000     8.37784532870000
  6    11.98796460100000    12.29427204670000     8.46609865770000
  6     1.85461497260000     2.47384982990000     8.43064929080000
  6     0.73802708420000     4.51236124350000     7.49816796690000
  6     4.67403291800000    10.13252446060000     7.62682352930000
  6    15.92291700790000     7.35487955180000     8.05977775660000
  6    16.39088925960000     1.60791217210000     8.26570804090000
  6    11.16745353490000     9.09166702990000     7.26557180240000
  6    12.11033720040000    10.02135757770000     7.85049386250000
  6     5.88504230530000     9.34287281980000     7.88179958500000
  6    11.92787123230000    14.68741506570000     8.18805201170000
  6     4.17499135840000    12.52568855060000     8.35494529230000
  6    13.38738635670000     6.61520493420000     7.92695757020000
 14    17.85138868760000     5.45155513770000     7.92391576700000
 14    17.84997668990000     2.59719551750000     7.66112596370000
  6     2.18692775290000    11.62270873960000     6.68388758190000
  6    14.53681872430000     9.44496186520000     8.05060981940000
  6     8.01135142560000     4.74869512900000     7.86318021030000
 14     7.71728828980000    13.97036697180000     7.86073184320000
  6     0.60704577770000     9.61026576380000     7.53609132030000
  6     6.99915250580000    10.03351551930000     7.58863993060000
  6     8.29343637010000     9.52064276700000     7.60266335080000
  6     2.83423038150000     8.08962707940000     7.89421684380000
 14     6.92920638340000     3.33424798060000     7.28029515290000
  6     2.28343452330000     4.57494255100000     7.01262078610000
  6    13.88723595380000     1.74025784260000     7.77439398060000
  6    12.67907838300000     2.50384075270000     7.74833003050000
  6     5.02525962490000    11.51497158600000     7.86366181520000
  6     1.42268489100000     1.22100220120000     7.81907965970000
  6     8.01462060240000    12.12032786890000     7.65346719030000
  6    14.82317781180000     6.76238388670000     7.33726149080000
  6     2.74795504620000     3.10577070700000     7.30928944240000
 14     4.97866158840000    13.97199543750000     7.66494214160000
  6    11.04424558780000     5.58681797850000     7.07362863730000
  6    14.78650501840000    13.63146050690000     7.51602701000000
  6     4.42031615830000     5.37122963500000     7.73939185210000
  6    12.61062301530000     5.56298977780000     7.00832367140000
  6     1.58364014430000     8.48309512020000     7.46729552780000
  6     5.79851390660000     1.77855343410000     7.55505668030000
  6     2.36078511520000    15.08729035590000     7.32852109300000
  6     3.16011719830000     5.65853278540000     7.42345524100000
  6     8.96697586470000     7.02644680150000     7.04534451400000
  6    15.84916571340000    12.63332540410000     7.18757671070000
  6    17.50576680840000    14.72080759860000     7.13293472990000
  6    14.41479429040000    10.35785796650000     6.91533131770000
  6    17.08027187040000     4.12791012840000     6.76788064950000
  6     6.77323163850000    11.40794878510000     7.23219026250000
  6     3.73350804200000     0.16463193460000     6.96623966550000
  6    16.30495890340000     0.67027065040000     7.03335186420000
 14    15.27101537680000     4.23548648520000     6.66285065130000
  6    12.62222536010000    12.29807427150000     7.06001886890000
  6     8.22605302320000     5.63751401310000     6.66220145770000
  6    18.23015938380000    11.49125495800000     6.77736850250000
  6     0.75893156320000    10.76951994260000     6.69250509980000
  6    12.66234186220000    14.66810109260000     6.82447912800000
  6    13.85287006500000     0.68487825420000     6.75656027180000
  6    12.94049823260000    10.83916252470000     6.77449168980000
  6     8.32361474230000     8.41483055340000     6.58999274910000
  6     0.39398852020000     1.55179750080000     6.75890072000000
  6    15.06457996610000    14.86664851440000     6.71396702570000
 14     6.38145888880000     6.49289211000000     6.19226292710000
  6     2.93509174310000     7.01918189180000     6.84223373310000
  6    10.49840733100000     6.95065266570000     6.73094592190000
  6     5.26054640300000     4.42192195100000     6.90148250090000
  6    13.47652912260000    13.38429532560000     6.61615333900000
  6    12.23019949480000     2.89623816490000     6.54341511640000
 14     9.96517935350000     9.18448373580000     5.87097378720000
  6    17.05751668610000    13.45452238690000     6.27694008140000
  6     8.92505165050000    12.48992268900000     6.42290909550000
  6    15.51148800410000    11.42495726220000     6.35239271770000
  6    14.91483752650000     6.02746782590000     6.07519573100000
  6     1.55267294690000     7.47413210880000     6.28192199470000
 14     1.09475655330000    13.90491014190000     6.10701531020000
  6    10.73308720340000     3.06272870030000     6.40097899580000
  6    18.64996441850000     0.32269994860000     6.20598406790000
  6    18.36662289540000    12.68538644080000     5.98271094660000
  6     4.27605874970000     1.04971069980000     6.00946949110000
  6    16.97006165370000    10.63161314140000     6.22047682060000
  6     2.61420616030000     2.61944633880000     5.91582915410000
  6    18.23591962570000     6.07232963790000     5.68935753030000
  6     5.76993847980000     1.20033254490000     5.99554410250000
 14    10.70531185940000    12.29381621970000     6.72512063370000
  6     5.74120615280000    13.73811842960000     5.95848351530000
  6    10.20575650050000     1.95940987000000     5.47077498010000
  6     8.56213951340000    13.81953334500000     5.89899574710000
  6     0.77136971540000     6.24735245810000     5.91433972050000
 14     3.66461750250000    10.45357618220000     6.06244516540000
  6     7.21995995080000     8.10364274180000     5.70508082930000
  6    17.87975149110000     4.54397868070000     5.55788479770000
 14    13.87268376760000     8.83441996880000     5.69828642020000
  6    17.24297683920000     7.11332625930000     5.84988757900000
  6     1.11915524580000     2.65435338920000     5.63290534030000
  6    16.62409561260000     1.26062212110000     5.65361369700000
  6    10.63206688160000     0.72295977740000     5.65981638300000
  6     6.30690569890000    -0.12005112080000     5.62517333900000
  6     0.50099049070000     4.00717043100000     6.00836851570000
 14    13.22780664080000     6.63539895770000     5.60698853680000
  6    10.43490215640000    11.02968714310000     5.47853440890000
  6     8.97825740190000     4.70378291420000     5.60162434540000
  6     8.21358512070000     3.59127783210000     5.28543562960000
  6     6.66556397290000    11.25471329940000     5.50759644790000
  6    14.63810601440000     2.94985727970000     5.44342970260000
  6    10.47895901440000     4.54336315200000     5.90457051080000
  6     5.85227801140000     8.65296720600000     5.42863659400000
  6     4.97271689450000     7.60872641430000     5.33941045110000
  6     8.68596055740000     2.14120749150000     5.53001621940000
  6    12.03629650920000     0.24226827580000     5.49844330700000
  6    17.48091606180000     8.25760209060000     4.88837034820000
  6     9.07186424170000    11.51187288270000     5.34112492480000
  6    13.10338417470000     2.73627494290000     5.36061652330000
  6     9.84777677030000    14.47170390640000     5.40080320700000
  6     0.93451652260000    10.20361980510000     5.30804865360000
  6    10.61038342630000     7.44725852510000     5.28176580770000
  6     2.01240850750000    12.49808065560000     5.32526361270000
  6    12.82742753500000    10.41017290820000     5.27768021450000
  6    13.26074650720000     1.17289948230000     5.39689743430000
  6    15.93569347120000     6.61190927150000     5.20179458120000
  6     5.59161867690000     4.62763071140000     5.41620338640000
  6     3.61961931200000     1.98252115830000     5.16474330450000
  6    15.09559272830000    14.41360688130000     5.25126996050000
  6     3.53736233130000     7.13480880480000     5.28959284000000
  6    14.06992324180000    13.26253932140000     5.18145492930000
  6     1.50041621150000     5.01400041670000     5.62466956030000
  6     5.63252944180000    10.19191658680000     5.05905472900000
  6    16.40102623170000     9.23763707160000     4.60889980000000
  6     6.69110251380000     3.48966089220000     5.25907719220000
  6    15.46230547990000     1.78302081030000     4.93718802990000
  6    15.01257718300000    11.91379092200000     5.00216996600000
  6    17.83100535140000     0.72857499510000     5.00059394380000
  6    16.46281314480000    13.76352587940000     4.85035493010000
  6     2.07459852270000     7.98520242040000     4.97941659110000
  6     6.26499411950000    12.73666585320000     5.01470022430000
  6     2.27102281360000     9.50160925060000     4.96525382990000
  6    18.55778294650000     9.40541366280000     4.75534942600000
  6     7.99942262890000    10.81169495690000     4.80884104010000
  6     6.37328343650000     2.10188798470000     4.81148206820000
  6    17.35952564590000    10.32544725140000     4.71508562750000
  6    11.50742607070000    10.54250481690000     4.55478747990000
  6    11.28026715210000     4.57056238110000     4.66335749720000
  6     7.70182804670000    13.57157203030000     4.56324958480000
  6    12.40515488630000     3.82989899550000     4.37266920450000
  6     1.08747852760000    11.61187002790000     4.45064108590000
  6    14.48100397210000     0.63239650920000     4.59523327380000
  6    10.51633026640000    13.90404496910000     4.35724589250000
  6    18.63490956030000    12.32913425100000     4.41103387210000
  6    15.03428407530000     9.33961666280000     4.35085309310000
  6    11.75568170010000     7.00545195720000     4.45667144910000
  6     7.78369623240000     1.35390055220000     4.48576471300000
  6     7.90406350740000     7.66321310970000     4.40435213720000
  6    14.20135420790000    10.76428214250000     4.41005873560000
  6     2.32374279450000     4.92001834860000     4.38702422110000
  6     7.06332128360000    14.95985145600000     4.38470775170000
  6     9.35671569240000     7.25272820150000     4.34818870700000
  6    11.93032018990000    14.33656338520000     4.32187424110000
  6    17.22788575580000     4.28451502690000     4.26191001190000
  6     0.86501539970000     2.27950713490000     4.30163418170000
  6     3.48800439450000     5.85622515430000     4.30845854480000
  6     4.68628510670000     4.96643388320000     4.23471399370000
 14     7.34233504010000     5.83395734350000     4.08068219330000
  6    16.12210919730000    12.47074548340000     4.02048837010000
  6    17.48120116990000    14.50370336140000     4.05136386640000
  6    12.99927251480000    13.28757947030000     4.12653081530000
  6    18.52626408320000     1.66185533770000     4.03127845710000
 14     3.26286332590000    12.79526473530000     4.00249837360000
  6    15.85707977290000     6.59486546160000     3.82537944900000
  6    17.36464464800000    11.54300997310000     3.83610351330000
  6    18.62815583580000    13.65754965520000     3.71840160150000
  6     5.18883271710000    12.63553001380000     3.88670008190000
  6    11.13490513560000     5.76896847070000     3.75573629210000
  6     4.17837144260000     2.32037544840000     3.68347052950000
 14    15.58226077060000     3.52590588600000     3.77038994430000
  6     8.44622374060000     9.76083421950000     3.78271497530000
  6     5.69648557480000    10.28643555810000     3.61328389170000
  6     1.23276658570000     7.66261051670000     3.67498500670000
  6     5.70296372770000     5.71878140360000     3.43385906200000
  6     0.56315702850000     9.07774823010000     3.40751126070000
  6     5.58559466030000     1.78629861930000     3.47381899910000
  6     1.94716439870000     9.71620323260000     3.36540020300000
  6    11.08373801800000     9.80331687030000     3.42405375230000
  6     9.82528323710000     6.40279149620000     3.32190841900000
  6     2.51403043970000     4.02103810090000     3.33422517100000
  6     8.48856255200000    13.00440248450000     3.34961154760000
  6     3.63333120040000    14.42132379460000     3.26488606560000
  6     4.15606690480000     3.79414346170000     3.26102966300000
  6    14.59444775410000     6.09374975710000     3.24907695500000
  6     9.89601477970000    13.18145593870000     3.24389377510000
  6    18.18965864830000     4.52028269020000     3.24230681210000
  6     1.86042581030000    11.07304466930000     3.23995429520000
  6     7.52225152610000     8.68403363680000     3.20063474570000
  6    14.30466359150000     4.77281260230000     3.19155398030000
  6     6.04309913690000     0.15055639450000     3.14158991380000
  6    12.32555754660000     7.66204454260000     3.13744901510000
  6     5.00732606190000    14.09091124140000     3.11824551290000
  6     8.34531334280000     1.70652495070000     3.08006675340000
  6    12.79002111630000    14.53216640870000     3.04631333680000
  6     9.71296097740000     9.64195396270000     3.03993113930000
  6     1.38454757000000     3.08814590950000     3.02252709650000
  6     5.19450902810000    11.41407153080000     3.01976388500000
  6     0.83932722170000    14.05222913050000     3.00618731750000
  6    12.88870559360000     4.30211328200000     2.99538285370000
  6    13.68107008010000    11.07472212770000     2.97467275730000
  6    14.13238223790000     0.28985757830000     2.93676597500000
  6     6.08861301300000     9.13947543040000     2.92994645650000
  6    16.59342265810000     0.03644741710000     2.89403599570000
  6    15.39074470650000    13.00129787290000     2.89107202940000
  6    13.01631768190000    12.42538173970000     2.85670546890000
 14     0.45043144410000     6.05841901290000     2.83246188550000
 14    17.27743811570000     7.41793645080000     2.82546221750000
  6    12.20479571270000     9.13368728120000     2.78575422610000
  6     3.31683711840000     6.46736881830000     2.75313015400000
  6     2.79875164950000     0.32890873460000     2.72062344790000
  6    15.37276674680000    14.42978182450000     2.70703163800000
  6    18.68029833200000     3.38058258200000     2.69011315230000
  6    18.20286686890000     1.86724916060000     2.64326268400000
  6     3.35693070190000     1.61841771880000     2.60360831590000
  6    13.72087945070000     7.07263422550000     2.59047804020000
 14    14.72741878760000     8.67208208890000     2.59001912540000
  6     2.92671060810000    11.71691886520000     2.58761438510000
  6     2.35165256100000     7.65699101760000     2.57317448980000
  6    17.70655002490000    10.85262982000000     2.53412739380000
  6    16.77128811920000     1.39499766040000     2.49648706610000
  6    11.79056099050000     5.33199393330000     2.47374972370000
  6    -0.29614414020000     9.71041285730000     2.42054747300000
  6     8.78990290840000     2.97736968990000     2.41753090330000
  6     2.83574463070000     8.99916118280000     2.40249886710000
  6    14.40205246520000    12.21529470950000     2.39722498390000
  6     6.11262147250000     2.68268086730000     2.39245862460000
  6    15.62910211810000     2.22565163410000     2.38034626030000
  6    13.31669267310000     9.78341985780000     2.37511995130000
  6     7.82328728130000     5.45380067750000     2.36955938540000
  6     1.37694346540000     0.08241875600000     2.35324979710000
  6    14.28326820530000     1.65896191310000     2.33848707020000
  6     7.50905601090000     2.65236273580000     2.30224392350000
  6     9.24597580970000     5.56746659660000     2.30187976080000
  6     7.76883176450000    12.51105522270000     2.28704339630000
  6     5.41444222240000     3.84420372610000     2.23650220980000
  6    10.77967096460000    13.22139795540000     2.22074589540000
 14    12.80618154850000     2.62762612670000     2.20606349100000
  6    12.08557973890000    13.39059640580000     2.19924521820000
  6     4.10066089000000    10.98096904720000     2.17145667750000
  6     6.24173384230000     5.14178724620000     2.15483461150000
 14     5.10570455050000     6.80849572670000     2.13871071210000
  6     9.16429701110000     0.69896931090000     2.13556268120000
  6    12.41370161420000     6.65714405060000     2.05270175290000
  6    10.12964914370000     3.35998324220000     2.02775410360000
  6    11.05260382950000     2.19337663170000     2.02696616560000
  6     5.21604712370000     8.68092605140000     1.94975431820000
  6     9.39207290850000     8.76591511460000     1.92756095580000
  6     8.21892495990000     8.32245404140000     1.92606383250000
  6    10.41140996130000     4.71868821980000     1.92028598110000
  6    10.45998389610000     0.96026620600000     1.90704044050000
  6     2.12112970580000     6.29297644870000     1.88763288850000
  6     4.01687433470000     9.54707249590000     1.88056037540000
  6    17.21322803640000     9.70217578720000     1.83197243500000
  6     0.61711505320000     1.22975602650000     1.81274459670000
  6    16.33332435390000     8.64290789850000     1.77598623730000
  6     6.71518839720000     0.01855266700000     1.74787112670000
  6     8.00431112000000     0.19360491350000     1.72560659430000
  6     1.55544394140000     2.25527859980000     1.71717437240000
  6     2.90993562970000     2.24334792140000     1.47354151510000
  6     6.94042491770000    12.53504923060000     1.35501060560000
 14     5.54625043560000    13.74132037800000     0.96549697350000
